14
product
C         -3.44596       -0.05388        0.06874
C         -2.45275        1.00891        0.40403
H         -3.34585       -0.89157        0.76374
H         -3.29683       -0.38937       -0.95986
H         -4.45598        0.35325        0.17275
O          0.13193       -1.79894       -0.30248
C          1.49893       -1.43301       -0.26662
H          1.66462       -0.57388       -0.92141
H          2.10288       -2.27456       -0.61417
H          1.78363       -1.18238        0.75829
O         -2.67152        2.20314        0.50109
O         -1.20490        0.52554        0.57750
H         -0.69584        1.33651        0.80013
H         -0.37607       -1.03530        0.03854
