14
reactant
C         -3.84500       -0.17571       -0.03921
C         -2.44492        0.32082        0.15466
H         -4.02399       -1.04086        0.60409
H         -4.00401       -0.43615       -1.08861
H         -4.55059        0.61392        0.23466
O         -1.55509       -0.65188       -0.18018
C         -0.18433       -0.27497       -0.02916
H          0.05373        0.57033       -0.68208
H          0.43501       -1.12619       -0.32499
H          0.03294       -0.03494        1.01615
O         -2.15827        1.44183        0.55653
O         -0.06767        3.07881        1.16647
H         -0.50923        3.90074        1.42789
H         -0.83167        2.50085        0.95538
