14
Coordinates from ORCA-job inp
  C   -3.91145231141341     -0.28184036795294     -0.07655751442587
  C   -2.54891679401879      0.30870789486115      0.14823757242478
  H   -4.03321485198240     -1.17948255835606      0.53681883640660
  H   -4.01622573251093     -0.58602942563449     -1.12226236510058
  H   -4.67422597300835      0.45297709480178      0.17806033446548
  O   -1.58189286028679     -0.57418728198322     -0.15035649197840
  C   -0.22245973610688     -0.10786783428100      0.02927550281876
  H   -0.02736560609819      0.75862344606325     -0.60764104546640
  H   0.40898442446633     -0.94807617120849     -0.25856821632017
  H   -0.04678111983514      0.16854293033923      1.07201451494052
  O   -2.34039901717716      1.43699628590463      0.54761048928017
  O   0.13615154428320      2.91805274586705      1.10509103881078
  H   -0.06269117344484      3.80520745677022      1.41600421557432
  H   -0.73260079286666      2.51497578480889      0.95387312857002
