14
Coordinates from ORCA-job inp
  C   -1.87753960107976     -0.30966858292750      0.14320824101108
  C   -0.64020582306174      0.34727983327107     -0.35892684189083
  H   -1.79030281826895     -0.57557005306727      1.19527489775462
  H   -2.04730491265473     -1.20907587533469     -0.45553060085089
  H   -2.71281203176799      0.38123075572985      0.00075183857586
  O   0.65858663676564     -0.57984829582000      0.44773676757611
  C   1.81650642485012     -0.70515509119318     -0.37455980333763
  H   1.96513516696839      0.18625453061634     -0.99842979119179
  H   1.70630891035770     -1.57661815817113     -1.02866392442892
  H   2.68873524850803     -0.84945934845606      0.27201531705279
  O   -0.36420194609918      0.77354805233804     -1.43397896153396
  O   -0.18989689162328      1.44223646780250      1.01750322741323
  H   0.22235808517586      2.19369046744366      0.56918420110737
  H   0.56463355192990      0.48115529776837      1.00441543274297
