14
Coordinates from ORCA-job inp_initial_path E   0.000000000000
  C      -2.221946     -0.902312     -0.345958
  C      -0.859410     -0.311764     -0.121162
  H      -2.343708     -1.799954      0.267419
  H      -2.326719     -1.206501     -1.391662
  H      -2.984720     -0.167494     -0.091340
  O       0.107614     -1.194659     -0.419756
  C       1.467047     -0.728339     -0.240124
  H       1.662141      0.138152     -0.877041
  H       2.098491     -1.568548     -0.527968
  H       1.642725     -0.451928      0.802615
  O      -0.650893      0.816525      0.278210
  O       1.825658      2.297581      0.835691
  H       1.626815      3.184736      1.146604
  H       0.956906      1.894504      0.684473
14
Coordinates from ORCA-job inp_initial_path E   0.000000000000
  C      -2.223196     -0.848867     -0.313625
  C      -0.905313     -0.173701     -0.095231
  H      -2.371971     -1.665448      0.397579
  H      -2.212804     -1.271313     -1.322551
  H      -3.023868     -0.118335     -0.207916
  O       0.196150     -1.282510     -0.281178
  C       1.538855     -0.765451     -0.286024
  H       1.627598      0.110723     -0.930972
  H       2.152376     -1.594200     -0.641986
  H       1.841014     -0.519782      0.734649
  O      -0.816727      1.025667      0.047962
  O       1.795199      2.331160      0.833011
  H       1.429411      3.166121      1.144083
  H       0.973276      1.605935      0.922199
14
Coordinates from ORCA-job inp_initial_path E   0.000000000000
  C      -2.204861     -0.782880     -0.284537
  C      -0.947051      0.001042     -0.108706
  H      -2.388537     -1.519648      0.501602
  H      -2.098127     -1.316350     -1.234163
  H      -3.034865     -0.078662     -0.317089
  O       0.283939     -1.322281     -0.124187
  C       1.604781     -0.804564     -0.318997
  H       1.600911      0.074202     -0.965621
  H       2.168051     -1.636499     -0.747046
  H       2.064891     -0.575998      0.645436
  O      -0.890966      1.210817     -0.123483
  O       1.617080      2.314271      0.756428
  H       1.225056      3.105956      1.140044
  H       0.999700      1.330594      1.180319
14
Coordinates from ORCA-job inp_initial_path E   0.000000000000
  C      -2.175235     -0.707859     -0.257501
  C      -0.982361      0.174969     -0.137696
  H      -2.406387     -1.354174      0.593100
  H      -1.967373     -1.349301     -1.120383
  H      -3.025588     -0.052341     -0.441632
  O       0.388432     -1.335716      0.053556
  C       1.667080     -0.839091     -0.343151
  H       1.567411      0.020629     -1.008942
  H       2.162854     -1.687301     -0.822320
  H       2.292708     -0.578265      0.515309
  O      -0.956082      1.376755     -0.248038
  O       1.330890      2.228801      0.711668
  H       1.087406      3.045617      1.155636
  H       1.016242      1.057278      1.350393
14
Coordinates from ORCA-job inp_initial_path E   0.000000000000
  C      -2.140257     -0.631663     -0.229130
  C      -1.023774      0.346665     -0.138352
  H      -2.423992     -1.186181      0.669192
  H      -1.825978     -1.359953     -0.984605
  H      -3.001802     -0.055121     -0.565957
  O       0.505241     -1.335324      0.215114
  C       1.720144     -0.857828     -0.361212
  H       1.517593     -0.032140     -1.049438
  H       2.157930     -1.727123     -0.860217
  H       2.478847     -0.535646      0.360921
  O      -1.037511      1.521934     -0.399796
  O       1.030613      2.099670      0.791375
  H       1.019731      3.001169      1.116688
  H       1.023214      0.751541      1.435416
14
Coordinates from ORCA-job inp_initial_path E   0.000000000000
  C      -2.094914     -0.543963     -0.194771
  C      -1.063485      0.525166     -0.115067
  H      -2.437819     -1.009122      0.733481
  H      -1.680810     -1.337194     -0.826498
  H      -2.951347     -0.072226     -0.677372
  O       0.629533     -1.335315      0.349655
  C       1.764094     -0.865798     -0.377776
  H       1.456540     -0.085535     -1.082468
  H       2.168252     -1.750986     -0.877038
  H       2.600135     -0.470404      0.213739
  O      -1.089175      1.642350     -0.560268
  O       0.743403      1.957276      0.927134
  H       0.929037      2.891783      1.035350
  H       1.026557      0.453968      1.451897
14
Coordinates from ORCA-job inp_initial_path E   0.000000000000
  C      -2.040644     -0.442886     -0.157796
  C      -1.093585      0.705724     -0.091359
  H      -2.449784     -0.809696      0.788072
  H      -1.534011     -1.285976     -0.639668
  H      -2.868467     -0.098958     -0.778966
  O       0.767678     -1.342195      0.468211
  C       1.804460     -0.872802     -0.394919
  H       1.391383     -0.149141     -1.108142
  H       2.190996     -1.766846     -0.891240
  H       2.675786     -0.400926      0.080958
  O      -1.118732      1.747848     -0.692868
  O       0.478242      1.810644      1.026087
  H       0.783291      2.721847      0.970637
  H       1.013387      0.183364      1.420993
14
Coordinates from ORCA-job inp_initial_path E   0.000000000000
  C      -1.979857     -0.334612     -0.120657
  C      -1.108189      0.875818     -0.080001
  H      -2.458140     -0.593560      0.828787
  H      -1.391468     -1.205364     -0.428959
  H      -2.755763     -0.134691     -0.860255
  O       0.918361     -1.356932      0.569819
  C       1.840920     -0.882334     -0.412605
  H       1.328200     -0.221064     -1.123598
  H       2.219627     -1.778263     -0.910340
  H       2.718215     -0.339724     -0.031407
  O      -1.141564      1.845493     -0.793939
  O       0.229446      1.653322      1.066162
  H       0.593599      2.538244      0.934856
  H       0.986612     -0.066332      1.362137
14
Coordinates from ORCA-job inp_initial_path E   0.000000000000
  C      -1.913500     -0.226964     -0.085263
  C      -1.109852      1.031293     -0.082758
  H      -2.457269     -0.379355      0.852116
  H      -1.256361     -1.093538     -0.214782
  H      -2.623744     -0.172425     -0.910197
  O       1.077979     -1.361239      0.663088
  C       1.872399     -0.894259     -0.427467
  H       1.270427     -0.296710     -1.127043
  H       2.242786     -1.790236     -0.930903
  H       2.743294     -0.292735     -0.129088
  O      -1.165970      1.941917     -0.869887
  O      -0.017553      1.481615      1.057144
  H       0.380141      2.353576      0.916849
  H       0.957222     -0.300939      1.288190
14
Coordinates from ORCA-job inp_initial_path E   0.000000000000
  C      -1.841900     -0.125681     -0.052269
  C      -1.105142      1.176918     -0.083127
  H      -2.445901     -0.184575      0.858846
  H      -1.128332     -0.956743     -0.019832
  H      -2.481522     -0.200757     -0.930641
  O       1.247863     -1.332957      0.759119
  C       1.898726     -0.907969     -0.435074
  H       1.217502     -0.374302     -1.116658
  H       2.254736     -1.807693     -0.943508
  H       2.764493     -0.261813     -0.228938
  O      -1.195885      2.038744     -0.920837
  O      -0.268737      1.305779      0.997213
  H       0.158755      2.172682      0.907857
  H       0.925345     -0.541631      1.207849
