14
Coordinates from ORCA-job inp
  C   -2.89132793319171     -0.28339291009884     -0.11969508803085
  C   -2.09844082507084      0.91065099038638      0.31171621670331
  H   -3.56271344084136     -0.59013878209621      0.68873786861639
  H   -2.21883594516769     -1.12586691140447     -0.31689329911739
  H   -3.46724421353437     -0.03327986638030     -1.00966893635918
  O   0.07502749311590     -1.88351898852380      0.43060943618979
  C   0.82982524219267     -1.14343573126148     -0.52484446505724
  H   0.22440826274421     -0.37759096532323     -1.03511399429380
  H   1.18288030789824     -1.85546308506862     -1.27525688361743
  H   1.70531301321274     -0.65402790913963     -0.07366492938162
  O   -2.08980025661663      1.99834398896467     -0.20750011466773
  O   -1.33898525859098      0.63435059223656      1.42085953585144
  H   -0.86884492585890      1.45499079698214      1.63942831474926
  H   -0.24497152029123     -1.25716121927316      1.09155633841505
